LAMMPS (29 Sep 2021 - Update 3)
##Initialization Section

    # -- Default styles (for solo "SPCE" water) --

    units        real
    atom_style   full
    pair_style   lj/charmm/coul/long 9.0 10.0
    bond_style   harmonic
    angle_style  harmonic
    kspace_style pppm 0.0001
    #pair_modify  mix arithmetic  # LEAVE THIS UNSPECIFIED!

## Atom Definition

read_data    "system_after_npt.data"
Reading data file ...
  orthogonal box = (1.9070747 1.9070747 1.9070747) to (29.127125 29.127125 29.127125)
  reading atoms ...
  6 atoms
  reading velocities ...
  6 velocities
  scanning bonds ...
  scanning angles ...
  reading bonds ...
  4 bonds
  reading angles ...
  2 angles
Finding 1-2 1-3 1-4 neighbors ...
     2 = max # of 1-2 neighbors
     1 = max # of 1-3 neighbors
     1 = max # of 1-4 neighbors
     2 = max # of special neighbors

## Settings Section

    bond_coeff   1         600.0   1.0
    angle_coeff  1       75.0    109.47
    pair_coeff   1 1  0.1553  3.166
    pair_coeff   2 2  0.0     0.0
    group spce type  1  2
6 atoms in group spce
    # Note: Since we are using RATTLE constraints, the bond and angle strength
    # parameters ("600.0", "75.0") do not matter. But the equilibrium bond
    # length ("1.0") and equilibrium angle ("109.47") does matter. LAMMPS
    # obtains these numbers from the bond_coeff and angle_coeff commands above.

# ------------------------------- Run Section -------------------------------
# -- simulation protocol --

timestep     1.0
dump         1 all custom 500 traj_nvt.lammpstrj id mol type x y z ix iy iz
fix          fxnvt all nvt temp 300.0 300.0 500.0 tchain 1

#Constraints
    group spce type  1  2
6 atoms in group spce
    fix fRattleSPCE spce rattle 0.0001 10 100 b 1 a 1
       0 = # of size 2 clusters
       0 = # of size 3 clusters
       0 = # of size 4 clusters
       2 = # of frozen angles
  find clusters CPU = 0.000 seconds
    # Remember to put this command in your LAMMPS input script:
    #  include system.in.constraints
    # ...after minimization and after all integration fixes

thermo       500

run          10000
PPPM initialization ...
  G vector (1/distance) = 0.21257584
  grid = 8 8 8
  stencil order = 5
  estimated absolute RMS force accuracy = 0.020060853
  estimated relative force accuracy = 6.0412662e-05
  3d grid and FFT values/proc = 2197 512
  update every 1 steps, delay 10 steps, check yes
SHAKE stats (type/ave/delta/count) on step 0
Step Temp E_pair E_mol TotEng Press
0    264.16719   -6.5137773            0   -4.1514807   -8.0720818
SHAKE stats (type/ave/delta/count) on step 200
SHAKE stats (type/ave/delta/count) on step 300
SHAKE stats (type/ave/delta/count) on step 400
SHAKE stats (type/ave/delta/count) on step 500
SHAKE stats (type/ave/delta/count) on step 600
SHAKE stats (type/ave/delta/count) on step 700
SHAKE stats (type/ave/delta/count) on step 800
SHAKE stats (type/ave/delta/count) on step 900
SHAKE stats (type/ave/delta/count) on step 1000
SHAKE stats (type/ave/delta/count) on step 1100
SHAKE stats (type/ave/delta/count) on step 1200
SHAKE stats (type/ave/delta/count) on step 1300
SHAKE stats (type/ave/delta/count) on step 1400
SHAKE stats (type/ave/delta/count) on step 1500
SHAKE stats (type/ave/delta/count) on step 1600
SHAKE stats (type/ave/delta/count) on step 1700
SHAKE stats (type/ave/delta/count) on step 1800
SHAKE stats (type/ave/delta/count) on step 1900
SHAKE stats (type/ave/delta/count) on step 2000
SHAKE stats (type/ave/delta/count) on step 2100
SHAKE stats (type/ave/delta/count) on step 2200
SHAKE stats (type/ave/delta/count) on step 2300
SHAKE stats (type/ave/delta/count) on step 2400
SHAKE stats (type/ave/delta/count) on step 2500
SHAKE stats (type/ave/delta/count) on step 2600
SHAKE stats (type/ave/delta/count) on step 2700
SHAKE stats (type/ave/delta/count) on step 2800
SHAKE stats (type/ave/delta/count) on step 2900
SHAKE stats (type/ave/delta/count) on step 3000
SHAKE stats (type/ave/delta/count) on step 3100
SHAKE stats (type/ave/delta/count) on step 3200
SHAKE stats (type/ave/delta/count) on step 3300
SHAKE stats (type/ave/delta/count) on step 3400
SHAKE stats (type/ave/delta/count) on step 3500
SHAKE stats (type/ave/delta/count) on step 3600
SHAKE stats (type/ave/delta/count) on step 3700
SHAKE stats (type/ave/delta/count) on step 3800
SHAKE stats (type/ave/delta/count) on step 3900
SHAKE stats (type/ave/delta/count) on step 4000
SHAKE stats (type/ave/delta/count) on step 4100
SHAKE stats (type/ave/delta/count) on step 4200
SHAKE stats (type/ave/delta/count) on step 4300
SHAKE stats (type/ave/delta/count) on step 4400
SHAKE stats (type/ave/delta/count) on step 4500
SHAKE stats (type/ave/delta/count) on step 4600
SHAKE stats (type/ave/delta/count) on step 4700
SHAKE stats (type/ave/delta/count) on step 4800
SHAKE stats (type/ave/delta/count) on step 4900
SHAKE stats (type/ave/delta/count) on step 5000
SHAKE stats (type/ave/delta/count) on step 5100
SHAKE stats (type/ave/delta/count) on step 5200
SHAKE stats (type/ave/delta/count) on step 5300
SHAKE stats (type/ave/delta/count) on step 5400
SHAKE stats (type/ave/delta/count) on step 5500
SHAKE stats (type/ave/delta/count) on step 5600
SHAKE stats (type/ave/delta/count) on step 5700
SHAKE stats (type/ave/delta/count) on step 5800
SHAKE stats (type/ave/delta/count) on step 5900
SHAKE stats (type/ave/delta/count) on step 6000
SHAKE stats (type/ave/delta/count) on step 6100
SHAKE stats (type/ave/delta/count) on step 6200
SHAKE stats (type/ave/delta/count) on step 6300
SHAKE stats (type/ave/delta/count) on step 6400
SHAKE stats (type/ave/delta/count) on step 6500
SHAKE stats (type/ave/delta/count) on step 6600
SHAKE stats (type/ave/delta/count) on step 6700
SHAKE stats (type/ave/delta/count) on step 6800
SHAKE stats (type/ave/delta/count) on step 6900
SHAKE stats (type/ave/delta/count) on step 7000
SHAKE stats (type/ave/delta/count) on step 7100
SHAKE stats (type/ave/delta/count) on step 7200
SHAKE stats (type/ave/delta/count) on step 7300
SHAKE stats (type/ave/delta/count) on step 7400
SHAKE stats (type/ave/delta/count) on step 7500
SHAKE stats (type/ave/delta/count) on step 7600
SHAKE stats (type/ave/delta/count) on step 7700
SHAKE stats (type/ave/delta/count) on step 7800
SHAKE stats (type/ave/delta/count) on step 7900
SHAKE stats (type/ave/delta/count) on step 8000
SHAKE stats (type/ave/delta/count) on step 8100
SHAKE stats (type/ave/delta/count) on step 8200
SHAKE stats (type/ave/delta/count) on step 8300
SHAKE stats (type/ave/delta/count) on step 8400
SHAKE stats (type/ave/delta/count) on step 8500
SHAKE stats (type/ave/delta/count) on step 8600
SHAKE stats (type/ave/delta/count) on step 8700
SHAKE stats (type/ave/delta/count) on step 8800
SHAKE stats (type/ave/delta/count) on step 8900
SHAKE stats (type/ave/delta/count) on step 9000
SHAKE stats (type/ave/delta/count) on step 9100
SHAKE stats (type/ave/delta/count) on step 9200
SHAKE stats (type/ave/delta/count) on step 9300
SHAKE stats (type/ave/delta/count) on step 9400
SHAKE stats (type/ave/delta/count) on step 9500
SHAKE stats (type/ave/delta/count) on step 9600
SHAKE stats (type/ave/delta/count) on step 9700
SHAKE stats (type/ave/delta/count) on step 9800
SHAKE stats (type/ave/delta/count) on step 9900
SHAKE stats (type/ave/delta/count) on step 10000
Loop time of 0.207856 on 1 procs for 10000 steps with 6 atoms

# Now that the system's temperature has become more equilibrated,
# we can increase the timestep:

timestep     2.0
run          50000
PPPM initialization ...
  G vector (1/distance) = 0.21257584
  grid = 8 8 8
  stencil order = 5
  estimated absolute RMS force accuracy = 0.020060853
  estimated relative force accuracy = 6.0412662e-05
  3d grid and FFT values/proc = 2197 512
SHAKE stats (type/ave/delta/count) on step 10000
Step Temp E_pair E_mol TotEng Press
10000    304.96998   -6.8263385            0   -4.0991658   -5.7749094
SHAKE stats (type/ave/delta/count) on step 10200
SHAKE stats (type/ave/delta/count) on step 10300
SHAKE stats (type/ave/delta/count) on step 10400
SHAKE stats (type/ave/delta/count) on step 10500
SHAKE stats (type/ave/delta/count) on step 10600
SHAKE stats (type/ave/delta/count) on step 10700
SHAKE stats (type/ave/delta/count) on step 10800
SHAKE stats (type/ave/delta/count) on step 10900
SHAKE stats (type/ave/delta/count) on step 11000
SHAKE stats (type/ave/delta/count) on step 11100
SHAKE stats (type/ave/delta/count) on step 11200
SHAKE stats (type/ave/delta/count) on step 11300
SHAKE stats (type/ave/delta/count) on step 11400
SHAKE stats (type/ave/delta/count) on step 11500
SHAKE stats (type/ave/delta/count) on step 11600
SHAKE stats (type/ave/delta/count) on step 11700
SHAKE stats (type/ave/delta/count) on step 11800
SHAKE stats (type/ave/delta/count) on step 11900
SHAKE stats (type/ave/delta/count) on step 12000
SHAKE stats (type/ave/delta/count) on step 12100
SHAKE stats (type/ave/delta/count) on step 12200
SHAKE stats (type/ave/delta/count) on step 12300
SHAKE stats (type/ave/delta/count) on step 12400
SHAKE stats (type/ave/delta/count) on step 12500
SHAKE stats (type/ave/delta/count) on step 12600
SHAKE stats (type/ave/delta/count) on step 12700
SHAKE stats (type/ave/delta/count) on step 12800
SHAKE stats (type/ave/delta/count) on step 12900
SHAKE stats (type/ave/delta/count) on step 13000
SHAKE stats (type/ave/delta/count) on step 13100
SHAKE stats (type/ave/delta/count) on step 13200
SHAKE stats (type/ave/delta/count) on step 13300
SHAKE stats (type/ave/delta/count) on step 13400
SHAKE stats (type/ave/delta/count) on step 13500
SHAKE stats (type/ave/delta/count) on step 13600
SHAKE stats (type/ave/delta/count) on step 13700
SHAKE stats (type/ave/delta/count) on step 13800
SHAKE stats (type/ave/delta/count) on step 13900
SHAKE stats (type/ave/delta/count) on step 14000
SHAKE stats (type/ave/delta/count) on step 14100
SHAKE stats (type/ave/delta/count) on step 14200
SHAKE stats (type/ave/delta/count) on step 14300
SHAKE stats (type/ave/delta/count) on step 14400
SHAKE stats (type/ave/delta/count) on step 14500
SHAKE stats (type/ave/delta/count) on step 14600
SHAKE stats (type/ave/delta/count) on step 14700
SHAKE stats (type/ave/delta/count) on step 14800
SHAKE stats (type/ave/delta/count) on step 14900
SHAKE stats (type/ave/delta/count) on step 15000
SHAKE stats (type/ave/delta/count) on step 15100
SHAKE stats (type/ave/delta/count) on step 15200
SHAKE stats (type/ave/delta/count) on step 15300
SHAKE stats (type/ave/delta/count) on step 15400
SHAKE stats (type/ave/delta/count) on step 15500
SHAKE stats (type/ave/delta/count) on step 15600
SHAKE stats (type/ave/delta/count) on step 15700
SHAKE stats (type/ave/delta/count) on step 15800
SHAKE stats (type/ave/delta/count) on step 15900
SHAKE stats (type/ave/delta/count) on step 16000
SHAKE stats (type/ave/delta/count) on step 16100
SHAKE stats (type/ave/delta/count) on step 16200
SHAKE stats (type/ave/delta/count) on step 16300
SHAKE stats (type/ave/delta/count) on step 16400
SHAKE stats (type/ave/delta/count) on step 16500
SHAKE stats (type/ave/delta/count) on step 16600
SHAKE stats (type/ave/delta/count) on step 16700
SHAKE stats (type/ave/delta/count) on step 16800
SHAKE stats (type/ave/delta/count) on step 16900
SHAKE stats (type/ave/delta/count) on step 17000
SHAKE stats (type/ave/delta/count) on step 17100
SHAKE stats (type/ave/delta/count) on step 17200
SHAKE stats (type/ave/delta/count) on step 17300
SHAKE stats (type/ave/delta/count) on step 17400
SHAKE stats (type/ave/delta/count) on step 17500
SHAKE stats (type/ave/delta/count) on step 17600
SHAKE stats (type/ave/delta/count) on step 17700
SHAKE stats (type/ave/delta/count) on step 17800
SHAKE stats (type/ave/delta/count) on step 17900
SHAKE stats (type/ave/delta/count) on step 18000
SHAKE stats (type/ave/delta/count) on step 18100
SHAKE stats (type/ave/delta/count) on step 18200
SHAKE stats (type/ave/delta/count) on step 18300
SHAKE stats (type/ave/delta/count) on step 18400
SHAKE stats (type/ave/delta/count) on step 18500
SHAKE stats (type/ave/delta/count) on step 18600
SHAKE stats (type/ave/delta/count) on step 18700
SHAKE stats (type/ave/delta/count) on step 18800
SHAKE stats (type/ave/delta/count) on step 18900
SHAKE stats (type/ave/delta/count) on step 19000
SHAKE stats (type/ave/delta/count) on step 19100
SHAKE stats (type/ave/delta/count) on step 19200
SHAKE stats (type/ave/delta/count) on step 19300
SHAKE stats (type/ave/delta/count) on step 19400
SHAKE stats (type/ave/delta/count) on step 19500
SHAKE stats (type/ave/delta/count) on step 19600
SHAKE stats (type/ave/delta/count) on step 19700
SHAKE stats (type/ave/delta/count) on step 19800
SHAKE stats (type/ave/delta/count) on step 19900
SHAKE stats (type/ave/delta/count) on step 20000
SHAKE stats (type/ave/delta/count) on step 20100
SHAKE stats (type/ave/delta/count) on step 20200
SHAKE stats (type/ave/delta/count) on step 20300
SHAKE stats (type/ave/delta/count) on step 20400
SHAKE stats (type/ave/delta/count) on step 20500
SHAKE stats (type/ave/delta/count) on step 20600
SHAKE stats (type/ave/delta/count) on step 20700
SHAKE stats (type/ave/delta/count) on step 20800
SHAKE stats (type/ave/delta/count) on step 20900
SHAKE stats (type/ave/delta/count) on step 21000
SHAKE stats (type/ave/delta/count) on step 21100
SHAKE stats (type/ave/delta/count) on step 21200
SHAKE stats (type/ave/delta/count) on step 21300
SHAKE stats (type/ave/delta/count) on step 21400
SHAKE stats (type/ave/delta/count) on step 21500
SHAKE stats (type/ave/delta/count) on step 21600
SHAKE stats (type/ave/delta/count) on step 21700
SHAKE stats (type/ave/delta/count) on step 21800
SHAKE stats (type/ave/delta/count) on step 21900
SHAKE stats (type/ave/delta/count) on step 22000
SHAKE stats (type/ave/delta/count) on step 22100
SHAKE stats (type/ave/delta/count) on step 22200
SHAKE stats (type/ave/delta/count) on step 22300
SHAKE stats (type/ave/delta/count) on step 22400
SHAKE stats (type/ave/delta/count) on step 22500
SHAKE stats (type/ave/delta/count) on step 22600
SHAKE stats (type/ave/delta/count) on step 22700
SHAKE stats (type/ave/delta/count) on step 22800
SHAKE stats (type/ave/delta/count) on step 22900
SHAKE stats (type/ave/delta/count) on step 23000
SHAKE stats (type/ave/delta/count) on step 23100
SHAKE stats (type/ave/delta/count) on step 23200
SHAKE stats (type/ave/delta/count) on step 23300
SHAKE stats (type/ave/delta/count) on step 23400
SHAKE stats (type/ave/delta/count) on step 23500
SHAKE stats (type/ave/delta/count) on step 23600
SHAKE stats (type/ave/delta/count) on step 23700
SHAKE stats (type/ave/delta/count) on step 23800
SHAKE stats (type/ave/delta/count) on step 23900
SHAKE stats (type/ave/delta/count) on step 24000
SHAKE stats (type/ave/delta/count) on step 24100
SHAKE stats (type/ave/delta/count) on step 24200
SHAKE stats (type/ave/delta/count) on step 24300
SHAKE stats (type/ave/delta/count) on step 24400
SHAKE stats (type/ave/delta/count) on step 24500
SHAKE stats (type/ave/delta/count) on step 24600
SHAKE stats (type/ave/delta/count) on step 24700
SHAKE stats (type/ave/delta/count) on step 24800
SHAKE stats (type/ave/delta/count) on step 24900
SHAKE stats (type/ave/delta/count) on step 25000
SHAKE stats (type/ave/delta/count) on step 25100
SHAKE stats (type/ave/delta/count) on step 25200
SHAKE stats (type/ave/delta/count) on step 25300
SHAKE stats (type/ave/delta/count) on step 25400
SHAKE stats (type/ave/delta/count) on step 25500
SHAKE stats (type/ave/delta/count) on step 25600
SHAKE stats (type/ave/delta/count) on step 25700
SHAKE stats (type/ave/delta/count) on step 25800
SHAKE stats (type/ave/delta/count) on step 25900
SHAKE stats (type/ave/delta/count) on step 26000
SHAKE stats (type/ave/delta/count) on step 26100
SHAKE stats (type/ave/delta/count) on step 26200
SHAKE stats (type/ave/delta/count) on step 26300
SHAKE stats (type/ave/delta/count) on step 26400
SHAKE stats (type/ave/delta/count) on step 26500
SHAKE stats (type/ave/delta/count) on step 26600
SHAKE stats (type/ave/delta/count) on step 26700
SHAKE stats (type/ave/delta/count) on step 26800
SHAKE stats (type/ave/delta/count) on step 26900
SHAKE stats (type/ave/delta/count) on step 27000
SHAKE stats (type/ave/delta/count) on step 27100
SHAKE stats (type/ave/delta/count) on step 27200
SHAKE stats (type/ave/delta/count) on step 27300
SHAKE stats (type/ave/delta/count) on step 27400
SHAKE stats (type/ave/delta/count) on step 27500
SHAKE stats (type/ave/delta/count) on step 27600
SHAKE stats (type/ave/delta/count) on step 27700
SHAKE stats (type/ave/delta/count) on step 27800
SHAKE stats (type/ave/delta/count) on step 27900
SHAKE stats (type/ave/delta/count) on step 28000
SHAKE stats (type/ave/delta/count) on step 28100
SHAKE stats (type/ave/delta/count) on step 28200
SHAKE stats (type/ave/delta/count) on step 28300
SHAKE stats (type/ave/delta/count) on step 28400
SHAKE stats (type/ave/delta/count) on step 28500
SHAKE stats (type/ave/delta/count) on step 28600
SHAKE stats (type/ave/delta/count) on step 28700
SHAKE stats (type/ave/delta/count) on step 28800
SHAKE stats (type/ave/delta/count) on step 28900
SHAKE stats (type/ave/delta/count) on step 29000
SHAKE stats (type/ave/delta/count) on step 29100
SHAKE stats (type/ave/delta/count) on step 29200
SHAKE stats (type/ave/delta/count) on step 29300
SHAKE stats (type/ave/delta/count) on step 29400
SHAKE stats (type/ave/delta/count) on step 29500
SHAKE stats (type/ave/delta/count) on step 29600
SHAKE stats (type/ave/delta/count) on step 29700
SHAKE stats (type/ave/delta/count) on step 29800
SHAKE stats (type/ave/delta/count) on step 29900
SHAKE stats (type/ave/delta/count) on step 30000
SHAKE stats (type/ave/delta/count) on step 30100
SHAKE stats (type/ave/delta/count) on step 30200
SHAKE stats (type/ave/delta/count) on step 30300
SHAKE stats (type/ave/delta/count) on step 30400
SHAKE stats (type/ave/delta/count) on step 30500
SHAKE stats (type/ave/delta/count) on step 30600
SHAKE stats (type/ave/delta/count) on step 30700
SHAKE stats (type/ave/delta/count) on step 30800
SHAKE stats (type/ave/delta/count) on step 30900
SHAKE stats (type/ave/delta/count) on step 31000
SHAKE stats (type/ave/delta/count) on step 31100
SHAKE stats (type/ave/delta/count) on step 31200
SHAKE stats (type/ave/delta/count) on step 31300
SHAKE stats (type/ave/delta/count) on step 31400
SHAKE stats (type/ave/delta/count) on step 31500
SHAKE stats (type/ave/delta/count) on step 31600
SHAKE stats (type/ave/delta/count) on step 31700
SHAKE stats (type/ave/delta/count) on step 31800
SHAKE stats (type/ave/delta/count) on step 31900
SHAKE stats (type/ave/delta/count) on step 32000
SHAKE stats (type/ave/delta/count) on step 32100
SHAKE stats (type/ave/delta/count) on step 32200
SHAKE stats (type/ave/delta/count) on step 32300
SHAKE stats (type/ave/delta/count) on step 32400
SHAKE stats (type/ave/delta/count) on step 32500
SHAKE stats (type/ave/delta/count) on step 32600
SHAKE stats (type/ave/delta/count) on step 32700
SHAKE stats (type/ave/delta/count) on step 32800
SHAKE stats (type/ave/delta/count) on step 32900
SHAKE stats (type/ave/delta/count) on step 33000
SHAKE stats (type/ave/delta/count) on step 33100
SHAKE stats (type/ave/delta/count) on step 33200
SHAKE stats (type/ave/delta/count) on step 33300
SHAKE stats (type/ave/delta/count) on step 33400
SHAKE stats (type/ave/delta/count) on step 33500
SHAKE stats (type/ave/delta/count) on step 33600
SHAKE stats (type/ave/delta/count) on step 33700
SHAKE stats (type/ave/delta/count) on step 33800
SHAKE stats (type/ave/delta/count) on step 33900
SHAKE stats (type/ave/delta/count) on step 34000
SHAKE stats (type/ave/delta/count) on step 34100
SHAKE stats (type/ave/delta/count) on step 34200
SHAKE stats (type/ave/delta/count) on step 34300
SHAKE stats (type/ave/delta/count) on step 34400
SHAKE stats (type/ave/delta/count) on step 34500
SHAKE stats (type/ave/delta/count) on step 34600
SHAKE stats (type/ave/delta/count) on step 34700
SHAKE stats (type/ave/delta/count) on step 34800
SHAKE stats (type/ave/delta/count) on step 34900
SHAKE stats (type/ave/delta/count) on step 35000
SHAKE stats (type/ave/delta/count) on step 35100
SHAKE stats (type/ave/delta/count) on step 35200
SHAKE stats (type/ave/delta/count) on step 35300
SHAKE stats (type/ave/delta/count) on step 35400
SHAKE stats (type/ave/delta/count) on step 35500
SHAKE stats (type/ave/delta/count) on step 35600
SHAKE stats (type/ave/delta/count) on step 35700
SHAKE stats (type/ave/delta/count) on step 35800
SHAKE stats (type/ave/delta/count) on step 35900
SHAKE stats (type/ave/delta/count) on step 36000
SHAKE stats (type/ave/delta/count) on step 36100
SHAKE stats (type/ave/delta/count) on step 36200
SHAKE stats (type/ave/delta/count) on step 36300
SHAKE stats (type/ave/delta/count) on step 36400
SHAKE stats (type/ave/delta/count) on step 36500
SHAKE stats (type/ave/delta/count) on step 36600
SHAKE stats (type/ave/delta/count) on step 36700
SHAKE stats (type/ave/delta/count) on step 36800
SHAKE stats (type/ave/delta/count) on step 36900
SHAKE stats (type/ave/delta/count) on step 37000
SHAKE stats (type/ave/delta/count) on step 37100
SHAKE stats (type/ave/delta/count) on step 37200
SHAKE stats (type/ave/delta/count) on step 37300
SHAKE stats (type/ave/delta/count) on step 37400
SHAKE stats (type/ave/delta/count) on step 37500
SHAKE stats (type/ave/delta/count) on step 37600
SHAKE stats (type/ave/delta/count) on step 37700
SHAKE stats (type/ave/delta/count) on step 37800
SHAKE stats (type/ave/delta/count) on step 37900
SHAKE stats (type/ave/delta/count) on step 38000
SHAKE stats (type/ave/delta/count) on step 38100
SHAKE stats (type/ave/delta/count) on step 38200
SHAKE stats (type/ave/delta/count) on step 38300
SHAKE stats (type/ave/delta/count) on step 38400
SHAKE stats (type/ave/delta/count) on step 38500
SHAKE stats (type/ave/delta/count) on step 38600
SHAKE stats (type/ave/delta/count) on step 38700
SHAKE stats (type/ave/delta/count) on step 38800
SHAKE stats (type/ave/delta/count) on step 38900
SHAKE stats (type/ave/delta/count) on step 39000
SHAKE stats (type/ave/delta/count) on step 39100
SHAKE stats (type/ave/delta/count) on step 39200
SHAKE stats (type/ave/delta/count) on step 39300
SHAKE stats (type/ave/delta/count) on step 39400
SHAKE stats (type/ave/delta/count) on step 39500
SHAKE stats (type/ave/delta/count) on step 39600
SHAKE stats (type/ave/delta/count) on step 39700
SHAKE stats (type/ave/delta/count) on step 39800
SHAKE stats (type/ave/delta/count) on step 39900
SHAKE stats (type/ave/delta/count) on step 40000
SHAKE stats (type/ave/delta/count) on step 40100
SHAKE stats (type/ave/delta/count) on step 40200
SHAKE stats (type/ave/delta/count) on step 40300
SHAKE stats (type/ave/delta/count) on step 40400
SHAKE stats (type/ave/delta/count) on step 40500
SHAKE stats (type/ave/delta/count) on step 40600
SHAKE stats (type/ave/delta/count) on step 40700
SHAKE stats (type/ave/delta/count) on step 40800
SHAKE stats (type/ave/delta/count) on step 40900
SHAKE stats (type/ave/delta/count) on step 41000
SHAKE stats (type/ave/delta/count) on step 41100
SHAKE stats (type/ave/delta/count) on step 41200
SHAKE stats (type/ave/delta/count) on step 41300
SHAKE stats (type/ave/delta/count) on step 41400
SHAKE stats (type/ave/delta/count) on step 41500
SHAKE stats (type/ave/delta/count) on step 41600
SHAKE stats (type/ave/delta/count) on step 41700
SHAKE stats (type/ave/delta/count) on step 41800
SHAKE stats (type/ave/delta/count) on step 41900
SHAKE stats (type/ave/delta/count) on step 42000
SHAKE stats (type/ave/delta/count) on step 42100
SHAKE stats (type/ave/delta/count) on step 42200
SHAKE stats (type/ave/delta/count) on step 42300
SHAKE stats (type/ave/delta/count) on step 42400
SHAKE stats (type/ave/delta/count) on step 42500
SHAKE stats (type/ave/delta/count) on step 42600
SHAKE stats (type/ave/delta/count) on step 42700
SHAKE stats (type/ave/delta/count) on step 42800
SHAKE stats (type/ave/delta/count) on step 42900
SHAKE stats (type/ave/delta/count) on step 43000
SHAKE stats (type/ave/delta/count) on step 43100
SHAKE stats (type/ave/delta/count) on step 43200
SHAKE stats (type/ave/delta/count) on step 43300
SHAKE stats (type/ave/delta/count) on step 43400
SHAKE stats (type/ave/delta/count) on step 43500
SHAKE stats (type/ave/delta/count) on step 43600
SHAKE stats (type/ave/delta/count) on step 43700
SHAKE stats (type/ave/delta/count) on step 43800
SHAKE stats (type/ave/delta/count) on step 43900
SHAKE stats (type/ave/delta/count) on step 44000
SHAKE stats (type/ave/delta/count) on step 44100
SHAKE stats (type/ave/delta/count) on step 44200
SHAKE stats (type/ave/delta/count) on step 44300
SHAKE stats (type/ave/delta/count) on step 44400
SHAKE stats (type/ave/delta/count) on step 44500
SHAKE stats (type/ave/delta/count) on step 44600
SHAKE stats (type/ave/delta/count) on step 44700
SHAKE stats (type/ave/delta/count) on step 44800
SHAKE stats (type/ave/delta/count) on step 44900
SHAKE stats (type/ave/delta/count) on step 45000
SHAKE stats (type/ave/delta/count) on step 45100
SHAKE stats (type/ave/delta/count) on step 45200
SHAKE stats (type/ave/delta/count) on step 45300
SHAKE stats (type/ave/delta/count) on step 45400
SHAKE stats (type/ave/delta/count) on step 45500
SHAKE stats (type/ave/delta/count) on step 45600
SHAKE stats (type/ave/delta/count) on step 45700
SHAKE stats (type/ave/delta/count) on step 45800
SHAKE stats (type/ave/delta/count) on step 45900
SHAKE stats (type/ave/delta/count) on step 46000
SHAKE stats (type/ave/delta/count) on step 46100
SHAKE stats (type/ave/delta/count) on step 46200
SHAKE stats (type/ave/delta/count) on step 46300
SHAKE stats (type/ave/delta/count) on step 46400
SHAKE stats (type/ave/delta/count) on step 46500
SHAKE stats (type/ave/delta/count) on step 46600
SHAKE stats (type/ave/delta/count) on step 46700
SHAKE stats (type/ave/delta/count) on step 46800
SHAKE stats (type/ave/delta/count) on step 46900
SHAKE stats (type/ave/delta/count) on step 47000
SHAKE stats (type/ave/delta/count) on step 47100
SHAKE stats (type/ave/delta/count) on step 47200
SHAKE stats (type/ave/delta/count) on step 47300
SHAKE stats (type/ave/delta/count) on step 47400
SHAKE stats (type/ave/delta/count) on step 47500
SHAKE stats (type/ave/delta/count) on step 47600
SHAKE stats (type/ave/delta/count) on step 47700
SHAKE stats (type/ave/delta/count) on step 47800
SHAKE stats (type/ave/delta/count) on step 47900
SHAKE stats (type/ave/delta/count) on step 48000
SHAKE stats (type/ave/delta/count) on step 48100
SHAKE stats (type/ave/delta/count) on step 48200
SHAKE stats (type/ave/delta/count) on step 48300
SHAKE stats (type/ave/delta/count) on step 48400
SHAKE stats (type/ave/delta/count) on step 48500
SHAKE stats (type/ave/delta/count) on step 48600
SHAKE stats (type/ave/delta/count) on step 48700
SHAKE stats (type/ave/delta/count) on step 48800
SHAKE stats (type/ave/delta/count) on step 48900
SHAKE stats (type/ave/delta/count) on step 49000
SHAKE stats (type/ave/delta/count) on step 49100
SHAKE stats (type/ave/delta/count) on step 49200
SHAKE stats (type/ave/delta/count) on step 49300
SHAKE stats (type/ave/delta/count) on step 49400
SHAKE stats (type/ave/delta/count) on step 49500
SHAKE stats (type/ave/delta/count) on step 49600
SHAKE stats (type/ave/delta/count) on step 49700
SHAKE stats (type/ave/delta/count) on step 49800
SHAKE stats (type/ave/delta/count) on step 49900
SHAKE stats (type/ave/delta/count) on step 50000
SHAKE stats (type/ave/delta/count) on step 50100
SHAKE stats (type/ave/delta/count) on step 50200
SHAKE stats (type/ave/delta/count) on step 50300
SHAKE stats (type/ave/delta/count) on step 50400
SHAKE stats (type/ave/delta/count) on step 50500
SHAKE stats (type/ave/delta/count) on step 50600
SHAKE stats (type/ave/delta/count) on step 50700
SHAKE stats (type/ave/delta/count) on step 50800
SHAKE stats (type/ave/delta/count) on step 50900
SHAKE stats (type/ave/delta/count) on step 51000
SHAKE stats (type/ave/delta/count) on step 51100
SHAKE stats (type/ave/delta/count) on step 51200
SHAKE stats (type/ave/delta/count) on step 51300
SHAKE stats (type/ave/delta/count) on step 51400
SHAKE stats (type/ave/delta/count) on step 51500
SHAKE stats (type/ave/delta/count) on step 51600
SHAKE stats (type/ave/delta/count) on step 51700
SHAKE stats (type/ave/delta/count) on step 51800
SHAKE stats (type/ave/delta/count) on step 51900
SHAKE stats (type/ave/delta/count) on step 52000
SHAKE stats (type/ave/delta/count) on step 52100
SHAKE stats (type/ave/delta/count) on step 52200
SHAKE stats (type/ave/delta/count) on step 52300
SHAKE stats (type/ave/delta/count) on step 52400
SHAKE stats (type/ave/delta/count) on step 52500
SHAKE stats (type/ave/delta/count) on step 52600
SHAKE stats (type/ave/delta/count) on step 52700
SHAKE stats (type/ave/delta/count) on step 52800
SHAKE stats (type/ave/delta/count) on step 52900
SHAKE stats (type/ave/delta/count) on step 53000
SHAKE stats (type/ave/delta/count) on step 53100
SHAKE stats (type/ave/delta/count) on step 53200
SHAKE stats (type/ave/delta/count) on step 53300
SHAKE stats (type/ave/delta/count) on step 53400
SHAKE stats (type/ave/delta/count) on step 53500
SHAKE stats (type/ave/delta/count) on step 53600
SHAKE stats (type/ave/delta/count) on step 53700
SHAKE stats (type/ave/delta/count) on step 53800
SHAKE stats (type/ave/delta/count) on step 53900
SHAKE stats (type/ave/delta/count) on step 54000
SHAKE stats (type/ave/delta/count) on step 54100
SHAKE stats (type/ave/delta/count) on step 54200
SHAKE stats (type/ave/delta/count) on step 54300
SHAKE stats (type/ave/delta/count) on step 54400
SHAKE stats (type/ave/delta/count) on step 54500
SHAKE stats (type/ave/delta/count) on step 54600
SHAKE stats (type/ave/delta/count) on step 54700
SHAKE stats (type/ave/delta/count) on step 54800
SHAKE stats (type/ave/delta/count) on step 54900
SHAKE stats (type/ave/delta/count) on step 55000
SHAKE stats (type/ave/delta/count) on step 55100
SHAKE stats (type/ave/delta/count) on step 55200
SHAKE stats (type/ave/delta/count) on step 55300
SHAKE stats (type/ave/delta/count) on step 55400
SHAKE stats (type/ave/delta/count) on step 55500
SHAKE stats (type/ave/delta/count) on step 55600
SHAKE stats (type/ave/delta/count) on step 55700
SHAKE stats (type/ave/delta/count) on step 55800
SHAKE stats (type/ave/delta/count) on step 55900
SHAKE stats (type/ave/delta/count) on step 56000
SHAKE stats (type/ave/delta/count) on step 56100
SHAKE stats (type/ave/delta/count) on step 56200
SHAKE stats (type/ave/delta/count) on step 56300
SHAKE stats (type/ave/delta/count) on step 56400
SHAKE stats (type/ave/delta/count) on step 56500
SHAKE stats (type/ave/delta/count) on step 56600
SHAKE stats (type/ave/delta/count) on step 56700
SHAKE stats (type/ave/delta/count) on step 56800
SHAKE stats (type/ave/delta/count) on step 56900
SHAKE stats (type/ave/delta/count) on step 57000
SHAKE stats (type/ave/delta/count) on step 57100
SHAKE stats (type/ave/delta/count) on step 57200
SHAKE stats (type/ave/delta/count) on step 57300
SHAKE stats (type/ave/delta/count) on step 57400
SHAKE stats (type/ave/delta/count) on step 57500
SHAKE stats (type/ave/delta/count) on step 57600
SHAKE stats (type/ave/delta/count) on step 57700
SHAKE stats (type/ave/delta/count) on step 57800
SHAKE stats (type/ave/delta/count) on step 57900
SHAKE stats (type/ave/delta/count) on step 58000
SHAKE stats (type/ave/delta/count) on step 58100
SHAKE stats (type/ave/delta/count) on step 58200
SHAKE stats (type/ave/delta/count) on step 58300
SHAKE stats (type/ave/delta/count) on step 58400
SHAKE stats (type/ave/delta/count) on step 58500
SHAKE stats (type/ave/delta/count) on step 58600
SHAKE stats (type/ave/delta/count) on step 58700
SHAKE stats (type/ave/delta/count) on step 58800
SHAKE stats (type/ave/delta/count) on step 58900
SHAKE stats (type/ave/delta/count) on step 59000
SHAKE stats (type/ave/delta/count) on step 59100
SHAKE stats (type/ave/delta/count) on step 59200
SHAKE stats (type/ave/delta/count) on step 59300
SHAKE stats (type/ave/delta/count) on step 59400
SHAKE stats (type/ave/delta/count) on step 59500
SHAKE stats (type/ave/delta/count) on step 59600
SHAKE stats (type/ave/delta/count) on step 59700
SHAKE stats (type/ave/delta/count) on step 59800
SHAKE stats (type/ave/delta/count) on step 59900
SHAKE stats (type/ave/delta/count) on step 60000
Loop time of 1.0514 on 1 procs for 50000 steps with 6 atoms

write_data  system_after_nvt.data
System init for write_data ...
PPPM initialization ...
  G vector (1/distance) = 0.21257584
  grid = 8 8 8
  stencil order = 5
  estimated absolute RMS force accuracy = 0.020060853
  estimated relative force accuracy = 6.0412662e-05
  3d grid and FFT values/proc = 2197 512
